实验/systemFiles/case10000.py
from numpy import array

def load_case_data():
    ppc = {}
    ppc['version'] = '2'
    ppc['baseMVA'] = 100.0
    ppc['bus'] = array([
        [1, 1, 14.811, 8.355, 0, 0, 1, 1, 0, 115, 1, 1.1],
        [2, 1, 8.472, 4.115, 0, 0, 1, 1, 0, 115, 1, 1.1],
        [3, 1, 10.163, 0.947, 0, 0, 1, 1, 0, 115, 1, 1.1],
        [4, 1, 6.162, 1.482, 0, 0, 1, 1, 0, 115, 1, 1.1],
        [5, 1, 0, 0, 0, 0, 1, 1, 0, 115, 1, 1.1],
        [6, 1, 7.075, 3.246, 0, 0, 1, 1, 0, 115, 1, 1.1],
        [7, 1, 14.144, 2.528, 0, 0, 1, 1, 0, 115, 1, 1.1],
        [8, 1, 17.562, 1.122, 0, 0, 1, 1, 0, 115, 1, 1.1],
        [9, 1, 14.415, 6.33, 0, 5.04066867054, 1, 1, 0, 115, 1, 1.1],
        [10, 1, 27.65, 6.748, 0, 0, 1, 1, 0, 115, 1, 1.1],
        [11, 1, 7.856, 0.46, 0, 0, 1, 1, 0, 115, 1, 1.1],
        [12, 1, 0, 0, 0, -5.0997424252, 1, 1, 0, 230, 1, 1.1],
        [13, 1, 0, 0, 0, 0, 1, 1, 0, 115, 1, 1.1],
        [14, 1, 15.706, 4.637, 0, 0, 1, 1, 0, 230, 1, 1.1],
        [15, 1, 0, 0, 0, 0, 1, 1, 0, 230, 1, 1.1],
        [16, 1, 0, 0, 0, 0, 1, 1, 0, 230, 1, 1.1],
        [17, 1, 0, 0, 0, 0, 1, 1, 0, 115, 1, 1.1],
        [18, 1, 23.402, 1.937, 0, 0, 1, 1, 0, 230, 1, 1.1],
        [19, 1, 0, 0, 0, 0, 1, 1, 0, 230, 1, 1.1],
        [20, 1, 0, 0, 0, -32.4698696029, 1, 1, 0, 230, 1, 1.1],
        [21, 1, 41.635, 3.343, 0, 0, 1, 1, 0, 115, 1, 1.1],
        [22, 1, 0, 0, 0, 0, 1, 1, 0, 230, 1, 1.1],
        [23, 1, 0, 0, 0, 0, 1, 1, 0, 230, 1, 1.1],
        [24, 1, 16.537, 6.275, 0, 0, 1, 1, 0, 115, 1, 1.1],
        [25, 1, 16.971, 5.728, 0, 0, 1, 1, 0, 115, 1, 1.1],
        [26, 1, 6.864, 0.974, 0, 0, 1, 1, 0, 115, 1, 1.1],
        [27, 1, 0, 0, 0, -177.87890999, 1, 1, 0, 500, 1, 1.1],
        [28, 1, 0, 0, 0, 0, 1, 1, 0, 230, 1, 1.1],
        [29, 1, 0, 0, 0, 0, 1, 1, 0, 115, 1, 1.1],
        [30, 1, 51.446, 16.534, 0, 0, 1, 1, 0, 500, 1, 1.1],
        [31, 1, 0, 0, 0, 0, 1, 1, 0, 230, 1, 1.1],
        [32, 1, 0, 0, 0, 0, 1, 1, 0, 115, 1, 1.1],
        [33, 1, 33.651, 7.709, 0, 0, 1, 1, 0, 115, 1, 1.1],
        [34, 1, 13.859, 8.559, 0, 0, 1, 1, 0, 115, 1, 1.1],
        [35, 1, 0, 0, 0, 0, 1, 1, 0, 115, 1, 1.1],
        [36, 1, 12.371, 3.516, 0, 0, 1, 1, 0, 115, 1, 1.1],
        [37, 1, 0, 0, 0, 0, 1, 1, 0, 230, 1, 1.1],
        [38, 1, 0, 0, 0, 0, 1, 1, 0, 115, 1, 1.1],
        [39, 1, 26.081, 13.265, 0, 0, 1, 1, 0, 230, 1, 1.1],
        [40, 1, 16.729, 3.091, 0, 0, 1, 1, 0, 115, 1, 1.1],
        [41, 1, 15.557, 5.194, 0, 0, 1, 1, 0, 115, 1, 1.1],
        [42, 1, 16.729, 1.116, 0, 0, 1, 1, 0, 115, 1, 1.1],
        [43, 1, 19.24, 7.509, 0, 0, 1, 1, 0, 115, 1, 1.1],
        [44, 1, 15.396, 4.057, 0, 0, 1, 1, 0, 115, 1, 1.1],
        [45, 1, 12.147, 2.921, 0, 0, 1, 1, 0, 115, 1, 1.1],
        [46, 1, 18.201, 4.083, 0, 0, 1, 1, 0, 115, 1, 1.1],
        [47, 1, 9.779, 1.598, 0, -10.4246431476, 1, 1, 0, 115, 1, 1.1],
        [48, 1, 16.513, 2.974, 0, 0, 1, 1, 0, 115, 1, 1.1],
        [49, 1, 1.873, 0.657, 0, -5.64253910574, 1, 1, 0, 115, 1, 1.1],
        [50, 1, 0, 0, 0, 0, 1, 1, 0, 115, 1, 1.1],
        [51, 1, 13.089, 3.517, 0, 0, 1, 1, 0, 115, 1, 1.1],
        [52, 1, 26.18, 7.824, 0, 0, 1, 1, 0, 115, 1, 1.1],
        [53, 1, 0, 0, 0, 0, 1, 1, 0, 115, 1, 1.1],
        [54, 1, 0, 0, 0, 0, 1, 1, 0, 115, 1, 1.1],
        [55, 1, 24.97, 3.117, 0, 0, 1, 1, 0, 115, 1, 1.1],
        [56, 1, 0, 0, 0, 0, 1, 1, 0, 115, 1, 1.1],
        [57, 1, 9.407, 1.928, 0, 0, 1, 1, 0, 115, 1, 1.1],
        [58, 1, 20.419, 11.889, 0, 0, 1, 1, 0, 115, 1, 1.1],
        [59, 1, 19.253, 2.164, 0, 0, 1, 1, 0, 115, 1, 1.1],
        [60, 1, 11.049, 5.843, 0, 0, 1, 1, 0, 115, 1, 1.1],
        [61, 1, 11.049, 1.826, 0, 0, 1, 1, 0, 115, 1, 1.1],
        [62, 1, 29.873, 5.286, 0, 0, 1, 1, 0, 115, 1, 1.1],
        [63, 1, 0, 0, 0, 0, 1, 1, 0, 230, 1, 1.1],
        [64, 1, 0, 0, 0, 0, 1, 1, 0, 115, 1, 1.1],
        [65, 1, 0, 0, 0, 0, 1, 1, 0, 230, 1, 1.1],
        [66, 1, 48.284, 8.649, 0, 0, 1, 1, 0, 230, 1, 1.1],
        [67, 1, 13.678, 1.501, 0, 0, 1, 1, 0, 115, 1, 1.1],
        [68, 1, 0, 0, 0, 0, 1, 1, 0, 115, 1, 1.1],
        [69, 1, 15.208, 3.499, 0, 0, 1, 1, 0, 115, 1, 1.1],
        [70, 1, 18.037, 6.017, 0, 0, 1, 1, 0, 115, 1, 1.1],
        [71, 1, 9.199, 2.42, 0, 0, 1, 1, 0, 115, 1, 1.1],
        [72, 1, 0, 0, 0, -16.9568583013, 1, 1, 0, 230, 1, 1.1],
        [73, 1, 0, 0, 0, 0, 1, 1, 0, 115, 1, 1.1],
        [74, 1, 18.173, 0.797, 0, 0, 1, 1, 0, 230, 1, 1.1],
        [75, 1, 0, 0, 0, 0, 1, 1, 0, 230, 1, 1.1],
        [76, 1, 8.166, 1.447, 0, 0, 1, 1, 0, 115, 1, 1.1],
        [77, 1, 23.903, 0.311, 0, 0, 1, 1, 0, 115, 1, 1.1],
        [78, 1, 4.882, 0.839, 0, 0, 1, 1, 0, 115, 1, 1.1],
        [79, 1, 0, 0, 0, 0, 1, 1, 0, 230, 1, 1.1],
        [80, 1, 0, 0, 0, 0, 1, 1, 0, 115, 1, 1.1],
        [81, 1, 0, 0, 0, 0, 1, 1, 0, 230, 1, 1.1],
        [82, 1, 73.316, 6.425, 0, 0, 1, 1, 0, 230, 1, 1.1],
        [83, 1, 0, 0, 0, 0, 1, 1, 0, 115, 1, 1.1],
        [84, 1, 38.447, 13.753, 0, 0, 1, 1, 0, 115, 1, 1.1],
        [85, 1, 0, 0, 0, 0, 1, 1, 0, 115, 1, 1.1],
        [86, 1, 4.055, 0.981, 0, 0, 1, 1, 0, 115, 1, 1.1],
        [87, 1, 0, 0, 0, 0, 1, 1, 0, 115, 1, 1.1],
        [88, 1, 40.284, 30.617, 0, 0, 1, 1, 0, 115, 1, 1.1],
        [89, 1, 0, 0, 0, 0, 1, 1, 0, 115, 1, 1.1],
        [90, 1, 29.773, 10.282, 0, 0, 1, 1, 0, 115, 1, 1.1],
        [91, 1, 0, 0, 0, -136.504392464, 1, 1, 0, 500, 1, 1.1],
        [92, 1, 0, 0, 0, 0, 1, 1, 0, 230, 1, 1.1],
        [93, 1, 0, 0, 0, 0, 1, 1, 0, 115, 1, 1.1],
        [94, 1, 51.779, 17.005, 0, 0, 1, 1, 0, 500, 1, 1.1],
        [95, 1, 0, 0, 0, 0, 1, 1, 0, 500, 1, 1.1],
        [96, 1, 6.704, 2.726, 0, 0, 1, 1, 0, 115, 1, 1.1],
        [97, 1, 9.819, 2.937, 0, 0, 1, 1, 0, 115, 1, 1.1],
        [98, 1, 21.611, 8.123, 0, 0, 1, 1, 0, 115, 1, 1.1],
        [99, 1, 0, 0, 0, 0, 1, 1, 0, 115, 1, 1.1],
        [100, 1, 17.886, 4.374, 0, 0, 1, 1, 0, 115, 1, 1.1],
        [101, 1, 12.806, 1.785, 0, 0, 1, 1, 0, 115, 1, 1.1],
        [102, 1, 0, 0, 0, 0, 1, 1, 0, 115, 1, 1.1],
        [103, 1, 24.077, 3.576, 0, 0, 1, 1, 0, 115, 1, 1.1],
        [104, 1, 44.331, 4.758, 0, 0, 1, 1, 0, 115, 1, 1.1],
        [105, 1, 0, 0, 0, 0, 1, 1, 0, 115, 1, 1.1],
        [106, 1, 53.16, 28.699, 0, 0, 1, 1, 0, 115, 1, 1.1],
        [107, 1, 0, 0, 0, 0, 1, 1, 0, 230, 1, 1.1],
        [108, 1, 0, 0, 0, 0, 1, 1, 0, 115, 1, 1.1],
        [109, 1, 66.981, 8.48, 0, 0, 1, 1, 0, 230, 1, 1.1],
        [110, 1, 0, 0, 0, 0, 1, 1, 0, 230, 1, 1.1],
        [111, 1, 9.581, 2.553, 0, 0, 1, 1, 0, 115, 1, 1.1],
        [112, 1, 22.158, 8.712, 0, 0, 1, 1, 0, 115, 1, 1.1],
        [113, 1, 70.095, 21.299, 0, 0, 1, 1, 0, 115, 1, 1.1],
        [114, 1, 69.45, 25.104, 0, 0, 1, 1, 0, 115, 1, 1.1],
        [115, 1, 0, 0, 0, 0, 1, 1, 0, 230, 1, 1.1],
        [116, 1, 54.257, 11.308, 0, 0, 1, 1, 0, 115, 1, 1.1],
        [117, 1, 0, 0, 0, 0, 1, 1, 0, 230, 1, 1.1],
        [118, 1, 0, 0, 0, 0, 1, 1, 0, 230, 1, 1.1],
        [119, 1, 15.964, 7.503, 0, 0, 1, 1, 0, 115, 1, 1.1],
        [120, 1, 0, 0, 0, 0, 1, 1, 0, 115, 1, 1.1],
        [121, 1, 24.551, 10.578, 0, 0, 1, 1, 0, 115, 1, 1.1],
        [122, 1, 6.74, 1.068, 0, 0, 1, 1, 0, 115, 1, 1.1],
        [123, 1, 6.593, 1.944, 0, 0, 1, 1, 0, 115, 1, 1.1],
        [124, 1, 28.506, 7.311, 0, 0, 1, 1, 0, 115, 1, 1.1],
        [125, 1, 46.107, 16.005, 0, 0, 1, 1, 0, 115, 1, 1.1],
        [126, 1, 26.062, 9.396, 0, 0, 1, 1, 0, 115, 1, 1.1],
        [127, 1, 12.277, 1.648, 0, 0, 1, 1, 0, 115, 1, 1.1],
        [128, 1, 0, 0, 0, 0, 1, 1, 0, 115, 1, 1.1],
        [129, 1, 7.718, 8.553, 0, 0, 1, 1, 0, 115, 1, 1.1],
        [130, 1, 0, 0, 0, 0, 1, 1, 0, 230, 1, 1.1],
        [131, 1, 48.817, 10.676, 0, 0, 1, 1, 0, 115, 1, 1.1],
        [132, 1, 0, 0, 0, 0, 1, 1, 0, 230, 1, 1.1],
        [133, 1, 0, 0, 0, 0, 1, 1, 0, 230, 1, 1.1],
        [134, 1, 0, 0, 0, 0, 1, 1, 0, 115, 1, 1.1],
        [135, 1, 31.089, 5.445, 0, 0, 1, 1, 0, 230, 1, 1.1],
        [136, 1, 15.508, 3.491, 0, 0, 1, 1, 0, 115, 1, 1.1],
        [137, 1, 14.693, 4.74, 0, 0, 1, 1, 0, 115, 1, 1.1],
        [138, 1, 0, 0, 0, 0, 1, 1, 0, 115, 1, 1.1],
        [139, 1, 14.427, 4.536, 0, 0, 1, 1, 0, 115, 1, 1.1],
        [140, 1, 11.198, 6.382, 0, 0, 1, 1, 0, 115, 1, 1.1],
        [141, 1, 12.223, 8.617, 0, 0, 1, 1, 0, 115, 1, 1.1],
        [142, 1, 5.649, 4.233, 0, 0, 1, 1, 0, 115, 1, 1.1],
        [143, 1, 14.305, 2.313, 0, 0, 1, 1, 0, 115, 1, 1.1],
        [144, 1, 0, 0, 0, 0, 1, 1, 0, 115, 1, 1.1],
        [145, 1, 15.694, 1.312, 0, 0, 1, 1, 0, 115, 1, 1.1],
        [146, 1, 0, 0, 0, 0, 1, 1, 0, 115, 1, 1.1],
        [147, 1, 7.62, 0.982, 0, 0, 1, 1, 0, 115, 1, 1.1],
        [148, 1, 19.416, 6.757, 0, 0, 1, 1, 0, 115, 1, 1.1],
        [149, 1, 0, 0, 0, 0, 1, 1, 0, 115, 1, 1.1],
        [150, 1, 3.671, 0.314, 0, 0, 1, 1, 0, 115, 1, 1.1],
        [151, 1, 11.99, 2.544, 0, 0, 1, 1, 0, 115, 1, 1.1],
        [152, 1, 13.036, 8.096, 0, 0, 1, 1, 0, 115, 1, 1.1],
        [153, 1, 7.742, 1.817, 0, 0, 1, 1, 0, 115, 1, 1.1],
        [154, 1, 5.341, 2.089, 0, 0, 1, 1, 0, 115, 1, 1.1],
        [155, 1, 8.139, 3.41, 0, 0, 1, 1, 0, 115, 1, 1.1],
        [156, 1, 0, 0, 0, 0, 1, 1, 0, 115, 1, 1.1],
        [157, 1, 6.932, 1.099, 0, 0, 1, 1, 0, 115, 1, 1.1],
        [158, 1, 5.811, 2.402, 0, 0, 1, 1, 0, 115, 1, 1.1],
        [159, 1, 12.173, 4.954, 0, 0, 1, 1, 0, 115, 1, 1.1],
        [160, 1, 0, 0, 0, 0, 1, 1, 0, 230, 1, 1.1],
        [161, 1, 0, 0, 0, 0, 1, 1, 0, 115, 1, 1.1],
        [162, 1, 24.068, 7.427, 0, 0, 1, 1, 0, 230, 1, 1.1],
        [163, 1, 0, 0, 0, 0, 1, 1, 0, 230, 1, 1.1],
        [164, 1, 11.745, 3.214, 0, 0, 1, 1, 0, 115, 1, 1.1],
        [165, 1, 19.057, 2.366, 0, 0, 1, 1, 0, 115, 1, 1.1],
        [166, 1, 0, 0, 0, 0, 1, 1, 0, 115, 1, 1.1],
        [167, 1, 0, 0, 0, 0, 1, 1, 0, 115, 1, 1.1],
        [168, 1, 18.694, 6.364, 0, 0, 1, 1, 0, 115, 1, 1.1],
        [169, 1, 18.694, 5.794, 0, 0, 1, 1, 0, 115, 1, 1.1],
        [170, 1, 0, 0, 0, 0, 1, 1, 0, 115, 1, 1.1],
        [171, 1, 18.936, 6.123, 0, 0, 1, 1, 0, 115, 1, 1.1],
        [172, 1, 0, 0, 0, 0, 1, 1, 0, 230, 1, 1.1],
        [173, 1, 0, 0, 0, 0, 1, 1, 0, 115, 1, 1.1],
        [174, 1, 18.694, 6.267, 0, -6.67443540647, 1, 1, 0, 230, 1, 1.1],
        [175, 1, 19.265, 5.336, 0, 0, 1, 1, 0, 115, 1, 1.1],
        [176, 1, 0, 0, 0, 0, 1, 1, 0, 115, 1, 1.1],
        [177, 1, 7.515, 2.002, 0, 0, 1, 1, 0, 115, 1, 1.1],
        [178, 1, 0, 0, 0, 0, 1, 1, 0, 230, 1, 1.1],
        [179, 1, 20.961, 4.285, 0, 0, 1, 1, 0, 115, 1, 1.1],
        [180, 1, 0, 0, 0, 0, 1, 1, 0, 230, 1, 1.1],
        [181, 1, 0, 0, 0, 0, 1, 1, 0, 230, 1, 1.1],
        [182, 1, 9.136, 0.53, 0, 0, 1, 1, 0, 115, 1, 1.1],
        [183, 1, 0, 0, 0, 8.9500529104, 1, 1, 0, 115, 1, 1.1],
        [184, 1, 5.728, 2.825, 0, 0, 1, 1, 0, 115, 1, 1.1],
        [185, 1, 13.467, 5.902, 0, 0, 1, 1, 0, 115, 1, 1.1],
        [186, 1, 13.467, 7.018, 0, 0, 1, 1, 0, 115, 1, 1.1],
        [187, 1, 0, 0, 0, 0, 1, 1, 0, 115, 1, 1.1],
        [188, 1, 18.698, 7.993, 0, 0, 1, 1, 0, 115, 1, 1.1],
        [189, 1, 11.778, 0.834, 0, 0, 1, 1, 0, 115, 1, 1.1],
        [190, 1, 5.44, 1.383, 0, 0, 1, 1, 0, 115, 1, 1.1],
        [191, 1, 6.038, 3.119, 0, 0, 1, 1, 0, 115, 1, 1.1],
        [192, 1, 17.094, 3.107, 0, 0, 1, 1, 0, 115, 1, 1.1],
        [193, 1, 16.615, 4.755, 0, -14.9365168743, 1, 1, 0, 115, 1, 1.1],
        [194, 1, 0, 0, 0, 127.5611999, 1, 1, 0, 230, 1, 1.1],
        [195, 1, 52.722, 17.715, 0, 0, 1, 1, 0, 115, 1, 1.1],
        [196, 1, 0, 0, 0, 0, 1, 1, 0, 230, 1, 1.1],
        [197, 1, 17.904, 3.79, 0, 0, 1, 1, 0, 115, 1, 1.1],
        [198, 1, 0, 0, 0, 0, 1, 1, 0, 230, 1, 1.1],
        [199, 1, 0, 0, 0, 0, 1, 1, 0, 115, 1, 1.1],
        [200, 1, 33.012, 12.135, 0, 0, 1, 1, 0, 230, 1, 1.1],
...
    ])
    ppc['gen'] = array([
        [2275, 62.6615, 19.005, 48.61, -10.6, 1, 95.5, 1, 95.5],
        [2276, 67.5395, 19.005, 48.61, -10.6, 1, 95.5, 1, 95.5],
        [2277, 53.6425, 19.005, 48.61, -10.6, 1, 95.5, 1, 95.5],
        [2278, 53.4115, 19.005, 48.61, -10.6, 1, 95.5, 1, 95.5],
        [2279, 59.0275, 19.005, 48.61, -10.6, 1, 95.5, 1, 95.5],
        [2280, 57.3245, 19.005, 48.61, -10.6, 1, 95.5, 1, 95.5],
        [2285, 129.7165, 6.9345, 42.813, -28.944, 1, 201, 1, 201],
        [2289, 5.141, 1.3075, 3.542, -0.927, 1, 7.6, 1, 7.6],
        [2289, 3.1035, 0.8085, 2.19, -0.573, 1, 4.7, 1, 4.7],
        [2290, 1.2615, 0.2985, 0.808, -0.211, 1, 1.73, 1, 1.733],
        [2290, 1.035, 0.2985, 0.808, -0.211, 1, 1.73, 1, 1.733],
        [2291, 1.158, 0.2985, 0.808, -0.211, 1, 1.73, 1, 1.733],
        [2291, 1.291, 0.2985, 0.808, -0.211, 1, 1.73, 1, 1.733],
        [2292, 1.0245, 0.2985, 0.808, -0.211, 1, 1.73, 1, 1.733],
        [2293, 1.139, 0.2985, 0.808, -0.211, 1, 1.73, 1, 1.733],
        [2294, 1.0135, 0.2755, 0.746, -0.195, 1, 1.6, 1, 1.6],
        [2294, 1.0145, 0.2755, 0.746, -0.195, 1, 1.6, 1, 1.6],
        [2295, 0.9775, 0.258, 0.699, -0.183, 1, 1.5, 1, 1.5],
        [2295, 0.7805, 0.2405, 0.652, -0.171, 1, 1.4, 1, 1.4],
        [2296, 0.369, 0.086, 0.233, -0.061, 1, 0.5, 1, 0.5],
        [2302, 202.601, 58.506, 149.646, -32.634, 1, 294, 1, 294],
        [2303, 190.8575, 58.506, 149.646, -32.634, 1, 294, 1, 294],
        [2304, 183.5835, 58.506, 149.646, -32.634, 1, 294, 1, 294],
        [2310, 0, 0, 290.038, -75.933, 1, 622.4, 0, 622.4],
        [2315, 81.4205, 22.387, 57.262, -12.488, 1, 112.5, 1, 112.5],
        [2316, 74.5115, 22.387, 57.262, -12.488, 1, 112.5, 1, 112.5],
        [2317, 79.9875, 22.387, 57.262, -12.488, 1, 112.5, 1, 112.5],
        [2318, 63.797, 22.387, 57.262, -12.488, 1, 112.5, 1, 112.5],
        [2323, 93.0875, 5.5545, 34.293, -23.184, 1, 161, 1, 161],
        [2327, 70.421, 3.4915, 21.556, -14.573, 1, 101.2, 1, 101.2],
        [2332, 118.792, 36.4835, 93.317, -20.35, 1, 183.33, 1, 183.333],
        [2333, 134.281, 36.4835, 93.317, -20.35, 1, 183.33, 1, 183.333],
        [2334, 126.588, 36.4835, 93.317, -20.35, 1, 183.33, 1, 183.333],
        [2340, 0, 0, 336.452, -88.084, 1, 722, 0, 722],
        [2341, 0, 0, 336.452, -88.084, 1, 722, 0, 722],
        [2346, 51.5395, 17.791, 45.505, -9.923, 1, 89.4, 1, 89.4],
        [2347, 55.1645, 17.791, 45.505, -9.923, 1, 89.4, 1, 89.4],
        [2348, 53.8775, 17.791, 45.505, -9.923, 1, 89.4, 1, 89.4],
        [2349, 63.139, 17.791, 45.505, -9.923, 1, 89.4, 1, 89.4],
        [2350, 57.487, 17.791, 45.505, -9.923, 1, 89.4, 1, 89.4],
        [2351, 65.3425, 17.791, 45.505, -9.923, 1, 89.4, 1, 89.4],
        [2352, 0.2735, 0.0865, 0.221, -0.048, 1, 0.43, 1, 0.433],
        [2353, 0.3035, 0.0865, 0.221, -0.048, 1, 0.43, 1, 0.433],
        [2353, 0.322, 0.0865, 0.221, -0.048, 1, 0.43, 1, 0.433],
        [2358, 9.0645, 3.139, 8.029, -1.751, 1, 15.77, 1, 15.775],
        [2358, 11.826, 3.139, 8.029, -1.751, 1, 15.77, 1, 15.775],
        [2359, 10.564, 3.139, 8.029, -1.751, 1, 15.77, 1, 15.775],
        [2360, 10.255, 3.139, 8.029, -1.751, 1, 15.77, 1, 15.775],
        [2364, 99.9865, 35.521, 90.856, -19.814, 1, 178.5, 1, 178.5],
        [2365, 114.019, 35.521, 90.856, -19.814, 1, 178.5, 1, 178.5],
        [2366, 117.6955, 35.521, 90.856, -19.814, 1, 178.5, 1, 178.5],
        [2371, 141.285, 48.437, 123.891, -27.017, 1, 243.4, 1, 243.4],
        [2372, 161.063, 48.437, 123.891, -27.017, 1, 243.4, 1, 243.4],
        [2373, 178.138, 48.437, 123.891, -27.017, 1, 243.4, 1, 243.4],
        [2376, 2.0545, 0.6865, 1.756, -0.383, 1, 3.45, 1, 3.45],
        [2376, 2.468, 0.6865, 1.756, -0.383, 1, 3.45, 1, 3.45],
        [2376, 3.287, 0.995, 2.545, -0.555, 1, 5, 1, 5],
        [2376, 28.5935, 9.552, 24.432, -5.328, 1, 48, 1, 48],
        [2379, 26.4945, 74.3045, 148.609, 0, 1, 39.6, 1, 39.6],
        [2384, 79.8055, 25.87, 66.17, -14.43, 1, 130, 1, 130],
        [2385, 82.8875, 25.87, 66.17, -14.43, 1, 130, 1, 130],
        [2390, 97.9315, 31.024, 79.353, -17.305, 1, 155.9, 1, 155.9],
        [2391, 102.8945, 31.024, 79.353, -17.305, 1, 155.9, 1, 155.9],
        [2392, 88.465, 31.024, 79.353, -17.305, 1, 155.9, 1, 155.9],
        [2397, 0, 0, 335.986, -87.962, 1, 721, 0, 721],
        [2401, 2.021, 0.536, 1.229, -0.157, 1, 3.2, 1, 3.2],
        [2401, 2.2985, 0.536, 1.229, -0.157, 1, 3.2, 1, 3.2],
        [2401, 2.219, 0.536, 1.229, -0.157, 1, 3.2, 1, 3.2],
        [2401, 20.263, 5.5275, 12.672, -1.617, 1, 33, 1, 33],
        [2401, 20.4725, 5.5275, 12.672, -1.617, 1, 33, 1, 33],
        [2404, 45.741, 2.6305, 16.241, -10.98, 1, 76.25, 1, 76.25],
        [2404, 49.1675, 2.6305, 16.241, -10.98, 1, 76.25, 1, 76.25],
        [2409, 15.83, 5.572, 14.252, -3.108, 1, 28, 1, 28],
        [2409, 16.114, 5.572, 14.252, -3.108, 1, 28, 1, 28],
        [2410, 18.26, 5.572, 14.252, -3.108, 1, 28, 1, 28],
        [2411, 18.805, 5.572, 14.252, -3.108, 1, 28, 1, 28],
        [2411, 15.8465, 5.572, 14.252, -3.108, 1, 28, 1, 28],
        [2412, 16.0345, 5.572, 14.252, -3.108, 1, 28, 1, 28],
        [2416, 20.541, 5.632, 14.405, -3.141, 1, 28.3, 1, 28.3],
        [2416, 18.2115, 5.632, 14.405, -3.141, 1, 28.3, 1, 28.3],
        [2417, 21.162, 5.632, 14.405, -3.141, 1, 28.3, 1, 28.3],
        [2417, 15.821, 5.632, 14.405, -3.141, 1, 28.3, 1, 28.3],
        [2418, 18.973, 5.632, 14.405, -3.141, 1, 28.3, 1, 28.3],
        [2418, 17.765, 5.632, 14.405, -3.141, 1, 28.3, 1, 28.3],
        [2423, 34.869, 12.139, 31.049, -6.771, 1, 61, 1, 61],
        [2424, 14.083, 4.776, 12.216, -2.664, 1, 24, 1, 24],
        [2428, 180.4305, 49.4845, 126.571, -27.602, 1, 248.67, 1, 248.667],
        [2429, 168.8195, 49.4845, 126.571, -27.602, 1, 248.67, 1, 248.667],
        [2430, 166.0435, 49.4845, 126.571, -27.602, 1, 248.67, 1, 248.667],
        [2433, 50.8625, 17.791, 45.505, -9.923, 1, 89.4, 1, 89.4],
        [2433, 52.332, 17.791, 45.505, -9.923, 1, 89.4, 1, 89.4],
        [2433, 56.66, 17.791, 45.505, -9.923, 1, 89.4, 1, 89.4],
        [2433, 62.86, 17.791, 45.505, -9.923, 1, 89.4, 1, 89.4],
        [2433, 50.065, 17.791, 45.505, -9.923, 1, 89.4, 1, 89.4],
        [2441, 110.8295, 33.4985, 85.682, -18.685, 1, 168.33, 1, 168.333],
        [2442, 108.499, 33.4985, 85.682, -18.685, 1, 168.33, 1, 168.333],
        [2443, 121.871, 33.4985, 85.682, -18.685, 1, 168.33, 1, 168.333],
        [2449, 226.0585, 66.931, 169.088, -35.226, 1, 317.35, 1, 317.35],
        [2450, 215.5345, 32.704, 100.634, -35.226, 1, 317.35, 1, 317.35],
        [2455, 92.504, 26.228, 67.086, -14.63, 1, 131.8, 1, 131.8],
        [2456, 95.511, 26.228, 67.086, -14.63, 1, 131.8, 1, 131.8],
        [2459, 14.707, 4.378, 11.198, -2.442, 1, 22, 1, 22],
        [2459, 13.252, 4.378, 11.198, -2.442, 1, 22, 1, 22],
        [2459, 15.9775, 4.378, 11.198, -2.442, 1, 22, 1, 22],
        [2464, 62.0575, 19.24, 49.212, -10.732, 1, 96.68, 1, 96.683],
        [2465, 62.445, 19.24, 49.212, -10.732, 1, 96.68, 1, 96.683],
        [2466, 63.74, 19.24, 49.212, -10.732, 1, 96.68, 1, 96.683],
        [2467, 63.5135, 19.24, 49.212, -10.732, 1, 96.68, 1, 96.683],
        [2468, 64.81, 19.24, 49.212, -10.732, 1, 96.68, 1, 96.683],
        [2469, 69.8775, 19.24, 49.212, -10.732, 1, 96.68, 1, 96.683],
        [2473, 44.078, 15.1535, 38.76, -8.453, 1, 76.15, 1, 76.15],
        [2473, 49.2205, 15.1535, 38.76, -8.453, 1, 76.15, 1, 76.15],
        [2473, 56.087, 15.1535, 38.76, -8.453, 1, 76.15, 1, 76.15],
        [2473, 43.246, 15.1535, 38.76, -8.453, 1, 76.15, 1, 76.15],
        [2477, 24.353, 7.562, 19.342, -4.218, 1, 38, 1, 38],
        [2481, 115.0935, 5.872, 36.253, -24.509, 1, 170.2, 1, 170.2],
        [2486, 163.1075, 44.815, 114.627, -24.997, 1, 225.2, 1, 225.2],
        [2487, 146.4825, 44.815, 114.627, -24.997, 1, 225.2, 1, 225.2],
        [2488, 152.682, 44.815, 114.627, -24.997, 1, 225.2, 1, 225.2],
        [2493, 101.699, 5.175, 31.95, -21.6, 1, 150, 1, 150],
        [2499, 117.4255, 6.21, 38.34, -25.92, 1, 180, 1, 180],
        [2500, 5.633, 0.3105, 1.917, -1.296, 1, 9, 1, 9],
        [2506, 119.9925, 32.119, 82.153, -17.915, 1, 161.4, 1, 161.4],
        [2507, 106.9025, 32.119, 82.153, -17.915, 1, 161.4, 1, 161.4],
        [2508, 106.6125, 32.119, 82.153, -17.915, 1, 161.4, 1, 161.4],
        [2509, 111.0695, 32.119, 82.153, -17.915, 1, 161.4, 1, 161.4],
        [2510, 117.82, 32.119, 82.153, -17.915, 1, 161.4, 1, 161.4],
        [2515, 153.337, 41.0405, 104.973, -22.892, 1, 206.23, 1, 206.233],
        [2516, 148.554, 41.0405, 104.973, -22.892, 1, 206.23, 1, 206.233],
        [2517, 151.3125, 41.0405, 104.973, -22.892, 1, 206.23, 1, 206.233],
        [2521, 39.0095, 2.3325, 14.399, -9.734, 1, 67.6, 1, 67.6],
        [2526, 102.6485, 30.845, 78.895, -17.205, 1, 155, 1, 155],
        [2527, 87.6085, 30.845, 78.895, -17.205, 1, 155, 1, 155],
        [2531, 16.695, 0, 0, 0, 1, 30, 1, 30],
        [2531, 0.9745, 0, 0, 0, 1, 1.4, 1, 1.4],
        [2536, 41.868, 11.741, 30.031, -6.549, 1, 59, 1, 59],
        [2537, 35.8405, 11.741, 30.031, -6.549, 1, 59, 1, 59],
        [2538, 38.3715, 11.741, 30.031, -6.549, 1, 59, 1, 59],
        [2539, 42.7555, 11.741, 30.031, -6.549, 1, 59, 1, 59],
        [2544, 120.8375, 30.0315, 81.364, -21.301, 1, 174.6, 1, 174.6],
        [2545, 108.4295, 30.0315, 81.364, -21.301, 1, 174.6, 1, 174.6],
        [2548, 17.143, 5.552, 14.201, -3.097, 1, 27.9, 1, 27.9],
        [2549, 15.7005, 5.552, 14.201, -3.097, 1, 27.9, 1, 27.9],
        [2549, 20.537, 5.552, 14.201, -3.097, 1, 27.9, 1, 27.9],
        [2549, 18.6995, 5.552, 14.201, -3.097, 1, 27.9, 1, 27.9],
        [2549, 19.7105, 5.552, 14.201, -3.097, 1, 27.9, 1, 27.9],
        [2549, 19.2055, 5.552, 14.201, -3.097, 1, 27.9, 1, 27.9],
        [2554, 89.3135, 26.248, 67.137, -14.641, 1, 131.9, 1, 131.9],
        [2555, 98.6265, 26.248, 67.137, -14.641, 1, 131.9, 1, 131.9],
        [2556, 79.849, 26.248, 67.137, -14.641, 1, 131.9, 1, 131.9],
        [2557, 82.33, 26.248, 67.137, -14.641, 1, 131.9, 1, 131.9],
        [2563, 878.8745, 173.745, 447.12, -99.63, 1, 1215, 1, 1215],
        [2564, 705.927, 173.745, 447.12, -99.63, 1, 1215, 1, 1215],
        [2567, 48.3115, 14.328, 36.648, -7.992, 1, 72, 1, 72],
        [2567, 52.248, 14.328, 36.648, -7.992, 1, 72, 1, 72],
        [2567, 40.297, 14.328, 36.648, -7.992, 1, 72, 1, 72],
        [2567, 46.453, 14.328, 36.648, -7.992, 1, 72, 1, 72],
        [2567, 51.493, 14.328, 36.648, -7.992, 1, 72, 1, 72],
        [2567, 46.2715, 14.328, 36.648, -7.992, 1, 72, 1, 72],
        [2573, 201.2465, 9.591, 59.214, -40.032, 1, 278, 1, 278],
        [2578, 92.9685, 5.175, 31.95, -21.6, 1, 150, 1, 150],
        [2583, 243.89, 64.715, 165.527, -36.097, 1, 325.2, 1, 325.2],
        [2584, 195.8165, 64.715, 165.527, -36.097, 1, 325.2, 1, 325.2],
        [2588, 144.618, 8.0215, 49.523, -33.48, 1, 232.5, 1, 232.5],
        [2591, 52.8495, 2.777, 17.146, -11.592, 1, 80.5, 1, 80.5],
        [2594, 54.771, 2.7465, 16.955, -11.462, 1, 79.6, 1, 79.6],
        [2598, 13.474, 4.0295, 10.307, -2.248, 1, 20.25, 1, 20.25],
        [2598, 12.2065, 4.0295, 10.307, -2.248, 1, 20.25, 1, 20.25],
        [2604, 137.663, 6.9, 42.6, -28.8, 1, 200, 1, 200],
        [2611, 251.8135, 77.968, 199.426, -43.49, 1, 391.8, 1, 391.8],
        [2612, 290.3725, 77.968, 199.426, -43.49, 1, 391.8, 1, 391.8],
        [2613, 246.5175, 77.968, 199.426, -43.49, 1, 391.8, 1, 391.8],
        [2617, 12.188, 3.685, 8.448, -1.078, 1, 22, 1, 22],
        [2617, 14.2435, 3.685, 8.448, -1.078, 1, 22, 1, 22],
        [2623, 0, 0, 307.56, -80.52, 1, 660, 0, 660],
        [2624, 0, 0, 307.56, -80.52, 1, 660, 0, 660],
        [2625, 0, 0, 307.56, -80.52, 1, 660, 0, 660],
        [2630, 205.8935, 9.957, 61.472, -41.558, 1, 288.6, 1, 288.6],
        [2635, 166.8715, 8.3145, 51.333, -34.704, 1, 241, 1, 241],
        [2638, 33.0125, 2.0285, 12.524, -8.467, 1, 58.8, 1, 58.8],
        [2644, 94.332, 5.714, 35.278, -23.85, 1, 165.63, 1, 165.625],
        [2645, 112.195, 5.714, 35.278, -23.85, 1, 165.63, 1, 165.625],
        [2646, 105.1805, 5.714, 35.278, -23.85, 1, 165.63, 1, 165.625],
        [2647, 92.315, 5.714, 35.278, -23.85, 1, 165.63, 1, 165.625],
        [2651, 98.3255, 31.4885, 80.541, -17.564, 1, 158.23, 1, 158.233],
        [2652, 112.487, 31.4885, 80.541, -17.564, 1, 158.23, 1, 158.233],
        [2653, 91.415, 31.4885, 80.541, -17.564, 1, 158.23, 1, 158.233],
        [2657, 88.5845, 4.3645, 26.945, -18.216, 1, 126.5, 1, 126.5],
        [2662, 146.684, 6.7965, 41.961, -28.368, 1, 197, 1, 197],
        [2665, 52.792, 2.698, 16.657, -11.261, 1, 78.2, 1, 78.2],
        [2669, 134.9585, 36.5695, 93.537, -20.398, 1, 183.77, 1, 183.767],
        [2670, 127.9265, 36.5695, 93.537, -20.398, 1, 183.77, 1, 183.767],
        [2671, 102.4915, 36.5695, 93.537, -20.398, 1, 183.77, 1, 183.767],
        [2677, 108.056, 37.0805, 94.844, -20.683, 1, 186.33, 1, 186.333],
        [2678, 137.307, 37.0805, 94.844, -20.683, 1, 186.33, 1, 186.333],
        [2679, 127.8785, 37.0805, 94.844, -20.683, 1, 186.33, 1, 186.333],
        [2683, 181.582, 9.7705, 60.322, -40.781, 1, 283.2, 1, 283.2],
        [2688, 150.95, 7.0035, 43.239, -29.232, 1, 203, 1, 203],
        [2691, 24.0005, 8.557, 21.887, -4.773, 1, 43, 1, 43],
        [2692, 32.241, 8.557, 21.887, -4.773, 1, 43, 1, 43],
...
    ])
    ppc['gencost'] = array([
        [2, 0, 0, 3, 0, 17.44],
        [2, 0, 0, 3, 0, 12.88],
        [2, 0, 0, 3, 0, 20.33],
        [2, 0, 0, 3, 0, 19.24],
        [2, 0, 0, 3, 0, 16.98],
        [2, 0, 0, 3, 0, 17.61],
        [2, 0, 0, 3, 0, 0],
        [2, 0, 0, 3, 0, 0],
        [2, 0, 0, 3, 0, 0],
        [2, 0, 0, 3, 0, 0],
        [2, 0, 0, 3, 0, 0],
        [2, 0, 0, 3, 0, 0],
        [2, 0, 0, 3, 0, 0],
        [2, 0, 0, 3, 0, 0],
        [2, 0, 0, 3, 0, 0],
        [2, 0, 0, 3, 0, 0],
        [2, 0, 0, 3, 0, 0],
        [2, 0, 0, 3, 0, 0],
        [2, 0, 0, 3, 0, 0],
        [2, 0, 0, 3, 0, 0],
        [2, 0, 0, 3, 0.01313, 17.51],
        [2, 0, 0, 3, 0.01808, 19.24],
        [2, 0, 0, 3, 0.01907, 21],
        [2, 0, 0, 3, 0.04318, 53.98],
        [2, 0, 0, 3, 0, 17.65],
        [2, 0, 0, 3, 0, 16.87],
        [2, 0, 0, 3, 0, 18.42],
        [2, 0, 0, 3, 0.01651, 16.25],
        [2, 0, 0, 3, 0, 0],
        [2, 0, 0, 3, 0, 0],
        [2, 0, 0, 3, 0.01749, 17.64],
        [2, 0, 0, 3, 0.01004, 17.36],
        [2, 0, 0, 3, 0.01557, 16.68],
        [2, 0, 0, 3, 0.06886, 47.08],
        [2, 0, 0, 3, 0.04013, 51.07],
        [2, 0, 0, 3, 0, 17.52],
        [2, 0, 0, 3, 0, 15.58],
        [2, 0, 0, 3, 0, 19.29],
        [2, 0, 0, 3, 0, 19.9],
        [2, 0, 0, 3, 0, 15.59],
        [2, 0, 0, 3, 0, 17.33],
        [2, 0, 0, 3, 0, 16.4],
        [2, 0, 0, 3, 0, 12.85],
        [2, 0, 0, 3, 0, 17.68],
        [2, 0, 0, 3, 0, 15.83],
        [2, 0, 0, 3, 0, 17.2],
        [2, 0, 0, 3, 0, 14.58],
        [2, 0, 0, 3, 0, 12.4],
        [2, 0, 0, 3, 0.02166, 16.35],
        [2, 0, 0, 3, 0.01387, 16.15],
        [2, 0, 0, 3, 0.01595, 17.83],
        [2, 0, 0, 3, 0.02265, 17.91],
        [2, 0, 0, 3, 0.02035, 20.05],
        [2, 0, 0, 3, 0.01401, 20.44],
        [2, 0, 0, 3, 0, 17.03],
        [2, 0, 0, 3, 0, 15.9],
        [2, 0, 0, 3, 0, 16.34],
        [2, 0, 0, 3, 0, 14.27],
        [2, 0, 0, 3, 0, 0],
        [2, 0, 0, 3, 0.01283, 15.4],
        [2, 0, 0, 3, 0.01599, 18.46],
        [2, 0, 0, 3, 0.01319, 15.44],
        [2, 0, 0, 3, 0.02074, 20.67],
        [2, 0, 0, 3, 0.02141, 18.13],
        [2, 0, 0, 3, 0.06953, 30.5],
        [2, 0, 0, 3, 0, 0],
        [2, 0, 0, 3, 0, 0],
        [2, 0, 0, 3, 0, 0],
        [2, 0, 0, 3, 0, 0],
        [2, 0, 0, 3, 0, 0],
        [2, 0, 0, 3, 0, 0],
        [2, 0, 0, 3, 0, 0],
        [2, 0, 0, 3, 0, 16.64],
        [2, 0, 0, 3, 0, 12.83],
        [2, 0, 0, 3, 0, 14.35],
        [2, 0, 0, 3, 0, 15.06],
        [2, 0, 0, 3, 0, 15.08],
        [2, 0, 0, 3, 0, 17.09],
        [2, 0, 0, 3, 0, 15.73],
        [2, 0, 0, 3, 0, 15.42],
        [2, 0, 0, 3, 0, 14.74],
        [2, 0, 0, 3, 0, 14.77],
        [2, 0, 0, 3, 0, 15.75],
        [2, 0, 0, 3, 0, 17.8],
        [2, 0, 0, 3, 0, 17.17],
        [2, 0, 0, 3, 0, 14.37],
        [2, 0, 0, 3, 0.01143, 18.14],
        [2, 0, 0, 3, 0.01922, 19.88],
        [2, 0, 0, 3, 0.01631, 19.47],
        [2, 0, 0, 3, 0, 16.26],
        [2, 0, 0, 3, 0, 17.18],
        [2, 0, 0, 3, 0, 18.92],
        [2, 0, 0, 3, 0, 17.98],
        [2, 0, 0, 3, 0, 16.33],
        [2, 0, 0, 3, 0.01139, 13.82],
        [2, 0, 0, 3, 0.01613, 19.25],
        [2, 0, 0, 3, 0.01169, 16.62],
        [2, 0, 0, 3, 0.01369, 18.98],
        [2, 0, 0, 3, 0.01321, 17.97],
        [2, 0, 0, 3, 0, 16.28],
        [2, 0, 0, 3, 0, 20.42],
        [2, 0, 0, 3, 0, 16.78],
        [2, 0, 0, 3, 0, 14.8],
        [2, 0, 0, 3, 0, 13.72],
        [2, 0, 0, 3, 0, 16.4],
        [2, 0, 0, 3, 0, 19.28],
        [2, 0, 0, 3, 0, 18.52],
        [2, 0, 0, 3, 0, 18.98],
        [2, 0, 0, 3, 0, 20.25],
        [2, 0, 0, 3, 0, 19.13],
        [2, 0, 0, 3, 0, 16.77],
        [2, 0, 0, 3, 0, 20.01],
        [2, 0, 0, 3, 0, 18.29],
        [2, 0, 0, 3, 0, 15.42],
        [2, 0, 0, 3, 0, 17.11],
        [2, 0, 0, 3, 0, 0],
        [2, 0, 0, 3, 0.01352, 20.89],
        [2, 0, 0, 3, 0.01939, 17.93],
        [2, 0, 0, 3, 0.01749, 19.82],
        [2, 0, 0, 3, 0, 0],
        [2, 0, 0, 3, 0, 0],
        [2, 0, 0, 3, 0, 0],
        [2, 0, 0, 3, 0.009681, 16.49],
        [2, 0, 0, 3, 0.01686, 21.56],
        [2, 0, 0, 3, 0.01928, 20.31],
        [2, 0, 0, 3, 0.0137, 18.47],
        [2, 0, 0, 3, 0.01195, 20.25],
        [2, 0, 0, 3, 0.01434, 20.57],
        [2, 0, 0, 3, 0.01575, 22.8],
        [2, 0, 0, 3, 0.01105, 17.91],
        [2, 0, 0, 3, 0, 0],
        [2, 0, 0, 3, 0.01475, 17.59],
        [2, 0, 0, 3, 0.02007, 19.62],
        [2, 0, 0, 3, 0, 0],
        [2, 0, 0, 3, 0, 0],
        [2, 0, 0, 3, 0, 16.65],
        [2, 0, 0, 3, 0, 18.3],
        [2, 0, 0, 3, 0, 15.96],
        [2, 0, 0, 3, 0, 17.49],
        [2, 0, 0, 3, 0.03064, 32.13],
        [2, 0, 0, 3, 0.04609, 32.28],
        [2, 0, 0, 3, 0, 12.99],
        [2, 0, 0, 3, 0, 16.37],
        [2, 0, 0, 3, 0, 17.01],
        [2, 0, 0, 3, 0, 14.44],
        [2, 0, 0, 3, 0, 18.13],
        [2, 0, 0, 3, 0, 16.82],
        [2, 0, 0, 3, 0.01406, 16.76],
        [2, 0, 0, 3, 0, 17.23],
        [2, 0, 0, 3, 0.01503, 17.06],
        [2, 0, 0, 3, 0.01735, 17.85],
        [2, 0, 0, 3, 0.001101, 9.512],
        [2, 0, 0, 3, 0.001697, 8.369],
        [2, 0, 0, 3, 0, 17.04],
        [2, 0, 0, 3, 0, 14.97],
        [2, 0, 0, 3, 0, 16.94],
        [2, 0, 0, 3, 0, 16.96],
        [2, 0, 0, 3, 0, 18.78],
        [2, 0, 0, 3, 0, 16.37],
        [2, 0, 0, 3, 0, 0],
        [2, 0, 0, 3, 0, 0],
        [2, 0, 0, 3, 0.009473, 18.91],
        [2, 0, 0, 3, 0.01922, 19.04],
        [2, 0, 0, 3, 0, 0],
        [2, 0, 0, 3, 0, 0],
        [2, 0, 0, 3, 0, 0],
        [2, 0, 0, 3, 0, 17.58],
        [2, 0, 0, 3, 0, 18.38],
        [2, 0, 0, 3, 0, 0],
        [2, 0, 0, 3, 0.01606, 17.54],
        [2, 0, 0, 3, 0.01351, 24.01],
        [2, 0, 0, 3, 0.01913, 18.86],
        [2, 0, 0, 3, 0, 0],
        [2, 0, 0, 3, 0, 0],
        [2, 0, 0, 3, 0.05754, 50.07],
        [2, 0, 0, 3, 0.07299, 38.15],
        [2, 0, 0, 3, 0.06688, 45.38],
        [2, 0, 0, 3, 0, 0],
        [2, 0, 0, 3, 0, 0],
        [2, 0, 0, 3, 0, 0],
        [2, 0, 0, 3, 0, 0],
        [2, 0, 0, 3, 0, 0],
        [2, 0, 0, 3, 0, 0],
        [2, 0, 0, 3, 0, 0],
        [2, 0, 0, 3, 0.01425, 17],
        [2, 0, 0, 3, 0.01065, 15.64],
        [2, 0, 0, 3, 0.0185, 16.19],
        [2, 0, 0, 3, 0, 0],
        [2, 0, 0, 3, 0, 0],
        [2, 0, 0, 3, 0, 0],
        [2, 0, 0, 3, 0.01334, 21.02],
        [2, 0, 0, 3, 0.01379, 17.62],
        [2, 0, 0, 3, 0.02051, 17.04],
        [2, 0, 0, 3, 0.02006, 18.4],
        [2, 0, 0, 3, 0.01162, 20.59],
        [2, 0, 0, 3, 0.01726, 18.57],
        [2, 0, 0, 3, 0, 0],
        [2, 0, 0, 3, 0, 0],
        [2, 0, 0, 3, 0, 16.31],
        [2, 0, 0, 3, 0, 18.55],
...
    ])
    ppc['branch'] = array([
        [1, 10, 0.0087, 0.04508, 0.03012, 161, 161, 161, 0, 0, 1, -30],
        [2, 5, 0.04168, 0.15499, 0.06378, 172.6, 172.6, 172.6, 0, 0, 1, -30],
        [2, 2971, 0.0113, 0.0609, 0.01935, 179.1, 179.1, 179.1, 0, 0, 1, -30],
        [3, 32, 0.02285, 0.1258, 0.02312, 129.8, 129.8, 129.8, 0, 0, 1, -30],
        [4, 5, 0.00021, 0.0011, 0, 99999, 99999, 99999, 0, 0, 1, -30],
        [5, 47, 0.01779, 0.09175, 0.1489, 168.8, 168.8, 168.8, 0, 0, 1, -30],
        [6, 7, 0.01146, 0.06161, 0.01521, 118.9, 118.9, 118.9, 0, 0, 1, -30],
        [6, 3839, 0.06146, 0.23913, 0.02814, 132.4, 132.4, 132.4, 0, 0, 1, -30],
        [7, 3142, 0.01943, 0.08611, 0.03098, 154.4, 154.4, 154.4, 0, 0, 1, -30],
        [8, 9, 0.04045, 0.19503, 0.02577, 143.7, 143.7, 143.7, 0, 0, 1, -30],
        [8, 34, 0.03445, 0.15102, 0.02567, 125.9, 125.9, 125.9, 0, 0, 1, -30],
        [8, 2798, 0.03757, 0.171, 0.015, 165, 165, 165, 0, 0, 1, -30],
        [10, 11, 0.03459, 0.13093, 0.02825, 179.5, 179.5, 179.5, 0, 0, 1, -30],
        [12, 14, 0.00024, 0.00103, 0, 99999, 99999, 99999, 0, 0, 1, -30],
        [12, 15, 0.00028, 0.00118, 0, 99999, 99999, 99999, 0, 0, 1, -30],
        [13, 11, 0.0115, 0.05155, 0.00995, 186.6, 186.6, 186.6, 0, 0, 1, -30],
        [13, 25, 0.03053, 0.12823, 0.03996, 170.2, 170.2, 170.2, 0, 0, 1, -30],
        [15, 2405, 0.00382, 0.03136, 0.07527, 564.4, 564.4, 564.4, 0, 0, 1, -30],
        [15, 3118, 0.00577, 0.05823, 0.28363, 602.8, 602.8, 602.8, 0, 0, 1, -30],
        [16, 18, 0.00029, 0.00105, 0, 99999, 99999, 99999, 0, 0, 1, -30],
        [16, 19, 0.00021, 0.00106, 0, 99999, 99999, 99999, 0, 0, 1, -30],
        [17, 70, 0.02482, 0.12658, 0.04798, 148.2, 148.2, 148.2, 0, 0, 1, -30],
        [19, 3259, 0.01233, 0.10016, 0.25445, 532.2, 532.2, 532.2, 0, 0, 1, -30],
        [20, 22, 0.00021, 0.00114, 0, 99999, 99999, 99999, 0, 0, 1, -30],
        [20, 23, 0.00028, 0.00106, 0, 99999, 99999, 99999, 0, 0, 1, -30],
        [21, 9, 0.0449, 0.16501, 0.01666, 108.5, 108.5, 108.5, 0, 0, 1, -30],
        [22, 3615, 0.00793, 0.06747, 0.23868, 597.9, 597.9, 597.9, 0, 0, 1, -30],
        [24, 32, 0.01064, 0.03316, 0.00869, 147.4, 147.4, 147.4, 0, 0, 1, -30],
        [25, 24, 0.00921, 0.03545, 0.00947, 146.1, 146.1, 146.1, 0, 0, 1, -30],
        [25, 43, 0.00594, 0.0302, 0.03786, 175.1, 175.1, 175.1, 0, 0, 1, -30],
        [26, 2572, 0.0208, 0.09668, 0.02411, 135.6, 135.6, 135.6, 0, 0, 1, -30],
        [26, 3467, 0.05134, 0.25172, 0.03633, 160, 160, 160, 0, 0, 1, -30],
        [27, 30, 0.00029, 0.00101, 0, 99999, 99999, 99999, 0, 0, 1, -30],
        [27, 2585, 0.00049, 0.00859, 1.20744, 2730, 2730, 2730, 0, 0, 1, -30],
        [27, 3124, 0.001, 0.01944, 2.12114, 2885.3, 2885.3, 2885.3, 0, 0, 1, -30],
        [28, 31, 0.0003, 0.00103, 0, 99999, 99999, 99999, 0, 0, 1, -30],
        [29, 3557, 0.00452, 0.02384, 0.01438, 170.8, 170.8, 170.8, 0, 0, 1, -30],
        [31, 65, 0.00329, 0.03121, 0.15293, 513.4, 513.4, 513.4, 0, 0, 1, -30],
        [31, 2574, 0.00652, 0.0629, 0.18163, 513, 513, 513, 0, 0, 1, -30],
        [31, 3567, 0.00127, 0.01143, 0.03245, 651.5, 651.5, 651.5, 0, 0, 1, -30],
        [31, 3567, 0.00127, 0.01143, 0.03245, 651.5, 651.5, 651.5, 0, 0, 1, -30],
        [32, 33, 0.00021, 0.00116, 0, 99999, 99999, 99999, 0, 0, 1, -30],
        [32, 2282, 0.00716, 0.03527, 0.01736, 178.4, 178.4, 178.4, 0, 0, 1, -30],
        [34, 56, 0.03264, 0.16102, 0.02997, 134.9, 134.9, 134.9, 0, 0, 1, -30],
        [35, 36, 0.00024, 0.00114, 0, 99999, 99999, 99999, 0, 0, 1, -30],
        [35, 62, 0.01883, 0.10742, 0.02725, 115.3, 115.3, 115.3, 0, 0, 1, -30],
        [37, 39, 0.00025, 0.00118, 0, 99999, 99999, 99999, 0, 0, 1, -30],
        [37, 2975, 0.00926, 0.08957, 0.19243, 584.8, 584.8, 584.8, 0, 0, 1, -30],
        [38, 35, 0.01179, 0.04912, 0.01005, 139, 139, 139, 0, 0, 1, -30],
        [40, 54, 0.00717, 0.03214, 0.01168, 183.9, 183.9, 183.9, 0, 0, 1, -30],
        [41, 24, 0.00554, 0.0269, 0.01549, 152.7, 152.7, 152.7, 0, 0, 1, -30],
        [42, 40, 0.00522, 0.01499, 0.00686, 198.7, 198.7, 198.7, 0, 0, 1, -30],
        [42, 2282, 0.01068, 0.05861, 0.01552, 200.1, 200.1, 200.1, 0, 0, 1, -30],
        [43, 41, 0.00246, 0.01272, 0.00586, 168, 168, 168, 0, 0, 1, -30],
        [43, 3557, 0.00614, 0.03023, 0.00712, 164.6, 164.6, 164.6, 0, 0, 1, -30],
        [44, 29, 0.00738, 0.02468, 0.00717, 123.9, 123.9, 123.9, 0, 0, 1, -30],
        [44, 45, 0.0055, 0.0265, 0.0033, 145.5, 145.5, 145.5, 0, 0, 1, -30],
        [45, 2282, 0.0079, 0.04148, 0.00396, 162.4, 162.4, 162.4, 0, 0, 1, -30],
        [46, 38, 0.02563, 0.14224, 0.01306, 169.3, 169.3, 169.3, 0, 0, 1, -30],
        [48, 47, 0.00865, 0.03468, 0.02152, 166.3, 166.3, 166.3, 0, 0, 1, -30],
        [48, 71, 0.03201, 0.12189, 0.05261, 176.6, 176.6, 176.6, 0, 0, 1, -30],
        [49, 50, 0.00022, 0.00108, 0, 99999, 99999, 99999, 0, 0, 1, -30],
        [50, 86, 0.0328, 0.16516, 0.09333, 116.2, 116.2, 116.2, 0, 0, 1, -30],
        [51, 59, 0.01464, 0.04673, 0.00744, 114.8, 114.8, 114.8, 0, 0, 1, -30],
        [52, 53, 0.00021, 0.00103, 0, 99999, 99999, 99999, 0, 0, 1, -30],
        [53, 54, 0.00707, 0.03381, 0.01158, 147.3, 147.3, 147.3, 0, 0, 1, -30],
        [53, 59, 0.00623, 0.0242, 0.00374, 121.3, 121.3, 121.3, 0, 0, 1, -30],
        [54, 51, 0.01384, 0.04606, 0.00524, 145.7, 145.7, 145.7, 0, 0, 1, -30],
        [54, 55, 0.00027, 0.00106, 0, 99999, 99999, 99999, 0, 0, 1, -30],
        [56, 46, 0.04103, 0.16139, 0.02102, 159.3, 159.3, 159.3, 0, 0, 1, -30],
        [56, 57, 0.00022, 0.00118, 0, 99999, 99999, 99999, 0, 0, 1, -30],
        [56, 96, 0.01994, 0.09722, 0.00985, 136.4, 136.4, 136.4, 0, 0, 1, -30],
        [58, 64, 0.015, 0.07401, 0.00725, 134, 134, 134, 0, 0, 1, -30],
        [59, 58, 0.00557, 0.02601, 0.00571, 109.3, 109.3, 109.3, 0, 0, 1, -30],
        [60, 61, 0.0002, 0.00106, 0, 99999, 99999, 99999, 0, 0, 1, -30],
        [60, 67, 0.00441, 0.02151, 0.01126, 144.1, 144.1, 144.1, 0, 0, 1, -30],
        [60, 77, 0.00675, 0.04224, 0.01573, 169.1, 169.1, 169.1, 0, 0, 1, -30],
        [62, 47, 0.0085, 0.05417, 0.06179, 188.6, 188.6, 188.6, 0, 0, 1, -30],
        [62, 85, 0.01218, 0.06348, 0.01115, 166.7, 166.7, 166.7, 0, 0, 1, -30],
        [63, 65, 0.0003, 0.00111, 0, 99999, 99999, 99999, 0, 0, 1, -30],
        [63, 66, 0.0003, 0.00116, 0, 99999, 99999, 99999, 0, 0, 1, -30],
        [64, 53, 0.00517, 0.02427, 0.00753, 154.1, 154.1, 154.1, 0, 0, 1, -30],
        [64, 59, 0.00458, 0.0236, 0.00997, 156.3, 156.3, 156.3, 0, 0, 1, -30],
        [64, 67, 0.00668, 0.0258, 0.00494, 138.5, 138.5, 138.5, 0, 0, 1, -30],
        [68, 69, 0.00026, 0.00104, 0, 99999, 99999, 99999, 0, 0, 1, -30],
        [68, 3394, 0.00964, 0.03811, 0.00673, 120.4, 120.4, 120.4, 0, 0, 1, -30],
        [70, 68, 0.00842, 0.04011, 0.02742, 161.6, 161.6, 161.6, 0, 0, 1, -30],
        [70, 2713, 0.01477, 0.0596, 0.01854, 162.4, 162.4, 162.4, 0, 0, 1, -30],
        [72, 74, 0.00023, 0.00109, 0, 99999, 99999, 99999, 0, 0, 1, -30],
        [72, 75, 0.00027, 0.00118, 0, 99999, 99999, 99999, 0, 0, 1, -30],
        [73, 71, 0.0162, 0.0528, 0.0087, 182, 182, 182, 0, 0, 1, -30],
        [75, 3713, 0.00519, 0.04788, 0.20757, 615.4, 615.4, 615.4, 0, 0, 1, -30],
        [76, 58, 0.01303, 0.04777, 0.02234, 147.7, 147.7, 147.7, 0, 0, 1, -30],
        [76, 77, 0.01118, 0.05743, 0.0095, 160.5, 160.5, 160.5, 0, 0, 1, -30],
        [77, 2282, 0.01741, 0.07702, 0.0321, 199.3, 199.3, 199.3, 0, 0, 1, -30],
        [78, 68, 0.03304, 0.12753, 0.01506, 148.5, 148.5, 148.5, 0, 0, 1, -30],
        [78, 7121, 0.03285, 0.1673, 0.03843, 141, 141, 141, 0, 0, 1, -30],
        [79, 81, 0.00029, 0.00113, 0, 99999, 99999, 99999, 0, 0, 1, -30],
        [79, 82, 0.00029, 0.00119, 0, 99999, 99999, 99999, 0, 0, 1, -30],
        [80, 89, 0.01161, 0.06284, 0.01127, 117.4, 117.4, 117.4, 0, 0, 1, -30],
        [80, 102, 0.01133, 0.06495, 0.01164, 167, 167, 167, 0, 0, 1, -30],
        [81, 37, 0.0056, 0.04947, 0.08192, 494.2, 494.2, 494.2, 0, 0, 1, -30],
        [81, 92, 0.00258, 0.02243, 0.04721, 531.5, 531.5, 531.5, 0, 0, 1, -30],
        [81, 3708, 0.00169, 0.01576, 0.03176, 460.2, 460.2, 460.2, 0, 0, 1, -30],
        [83, 84, 0.00028, 0.00111, 0, 99999, 99999, 99999, 0, 0, 1, -30],
        [83, 85, 0.00021, 0.00111, 0, 99999, 99999, 99999, 0, 0, 1, -30],
        [85, 80, 0.01323, 0.052, 0.00706, 143.6, 143.6, 143.6, 0, 0, 1, -30],
        [85, 114, 0.00671, 0.0313, 0.01561, 139.4, 139.4, 139.4, 0, 0, 1, -30],
        [86, 142, 0.05221, 0.26828, 0.04396, 147.4, 147.4, 147.4, 0, 0, 1, -30],
        [86, 3214, 0.01641, 0.06346, 0.01157, 169.1, 169.1, 169.1, 0, 0, 1, -30],
        [86, 3467, 0.00749, 0.04011, 0.03024, 182.6, 182.6, 182.6, 0, 0, 1, -30],
        [87, 88, 0.00024, 0.00107, 0, 99999, 99999, 99999, 0, 0, 1, -30],
        [89, 87, 0.00473, 0.02379, 0.00664, 155.6, 155.6, 155.6, 0, 0, 1, -30],
        [89, 90, 0.00027, 0.00103, 0, 99999, 99999, 99999, 0, 0, 1, -30],
        [91, 94, 0.00021, 0.00118, 0, 99999, 99999, 99999, 0, 0, 1, -30],
        [91, 95, 0.00025, 0.00105, 0, 99999, 99999, 99999, 0, 0, 1, -30],
        [92, 117, 0.00082, 0.008, 0.14871, 418.8, 418.8, 418.8, 0, 0, 1, -30],
        [93, 87, 0.00984, 0.03541, 0.00713, 185.4, 185.4, 185.4, 0, 0, 1, -30],
        [97, 131, 0.01557, 0.06201, 0.01264, 140.6, 140.6, 140.6, 0, 0, 1, -30],
        [98, 139, 0.03132, 0.14759, 0.02588, 145.1, 145.1, 145.1, 0, 0, 1, -30],
        [99, 97, 0.00371, 0.02024, 0.03524, 116.7, 116.7, 116.7, 0, 0, 1, -30],
        [99, 98, 0.01547, 0.06318, 0.01446, 132, 132, 132, 0, 0, 1, -30],
        [99, 100, 0.00022, 0.00107, 0, 99999, 99999, 99999, 0, 0, 1, -30],
        [101, 2549, 0.00519, 0.02831, 0.01511, 138, 138, 138, 0, 0, 1, -30],
        [102, 103, 0.00021, 0.00119, 0, 99999, 99999, 99999, 0, 0, 1, -30],
        [102, 128, 0.0114, 0.0566, 0.02173, 146.4, 146.4, 146.4, 0, 0, 1, -30],
        [102, 2549, 0.00315, 0.01471, 0.06134, 121.7, 121.7, 121.7, 0, 0, 1, -30],
        [104, 108, 0.00671, 0.02956, 0.02076, 138.2, 138.2, 138.2, 0, 0, 1, -30],
        [104, 2322, 0.02195, 0.07919, 0.01246, 178, 178, 178, 0, 0, 1, -30],
        [105, 99, 0.00684, 0.03283, 0.02204, 155.3, 155.3, 155.3, 0, 0, 1, -30],
        [105, 106, 0.00029, 0.00112, 0, 99999, 99999, 99999, 0, 0, 1, -30],
        [105, 108, 0.00297, 0.01387, 0.00493, 177, 177, 177, 0, 0, 1, -30],
        [105, 111, 0.00769, 0.02818, 0.00392, 154.9, 154.9, 154.9, 0, 0, 1, -30],
        [107, 109, 0.00023, 0.00102, 0, 99999, 99999, 99999, 0, 0, 1, -30],
        [107, 110, 0.00027, 0.00119, 0, 99999, 99999, 99999, 0, 0, 1, -30],
        [108, 2654, 0.018, 0.07054, 0.01077, 168.3, 168.3, 168.3, 0, 0, 1, -30],
        [110, 2325, 0.00335, 0.03297, 0.07024, 530.7, 530.7, 530.7, 0, 0, 1, -30],
        [111, 108, 0.00218, 0.01069, 0.00394, 145.3, 145.3, 145.3, 0, 0, 1, -30],
        [111, 112, 0.00024, 0.00106, 0, 99999, 99999, 99999, 0, 0, 1, -30],
        [113, 111, 0.00613, 0.03282, 0.01025, 167, 167, 167, 0, 0, 1, -30],
        [113, 2654, 0.00616, 0.0224, 0.01354, 208.1, 208.1, 208.1, 0, 0, 1, -30],
        [113, 2654, 0.00616, 0.0224, 0.01354, 208.1, 208.1, 208.1, 0, 0, 1, -30],
        [114, 3707, 0.00252, 0.0103, 0.00212, 182.8, 182.8, 182.8, 0, 0, 1, -30],
        [115, 117, 0.00025, 0.00106, 0, 99999, 99999, 99999, 0, 0, 1, -30],
        [115, 118, 0.00023, 0.00107, 0, 99999, 99999, 99999, 0, 0, 1, -30],
        [116, 2600, 0.00878, 0.04711, 0.00903, 155.6, 155.6, 155.6, 0, 0, 1, -30],
        [117, 3820, 0.00147, 0.01211, 0.04853, 484, 484, 484, 0, 0, 1, -30],
        [119, 89, 0.00606, 0.02341, 0.00677, 132, 132, 132, 0, 0, 1, -30],
        [119, 120, 0.01192, 0.04377, 0.00859, 156, 156, 156, 0, 0, 1, -30],
        [120, 121, 0.00022, 0.00119, 0, 99999, 99999, 99999, 0, 0, 1, -30],
        [122, 67, 0.02141, 0.07579, 0.01161, 134.6, 134.6, 134.6, 0, 0, 1, -30],
        [122, 3115, 0.02118, 0.09526, 0.02574, 114.1, 114.1, 114.1, 0, 0, 1, -30],
        [123, 120, 0.02069, 0.09672, 0.01583, 171.4, 171.4, 171.4, 0, 0, 1, -30],
        [123, 2854, 0.01729, 0.0893, 0.01825, 176.5, 176.5, 176.5, 0, 0, 1, -30],
        [124, 140, 0.00896, 0.03798, 0.01782, 159.6, 159.6, 159.6, 0, 0, 1, -30],
        [125, 113, 0.00639, 0.02609, 0.0044, 141.5, 141.5, 141.5, 0, 0, 1, -30],
        [125, 2654, 0.01447, 0.06663, 0.01138, 163.4, 163.4, 163.4, 0, 0, 1, -30],
        [126, 101, 0.01231, 0.05904, 0.00577, 119.8, 119.8, 119.8, 0, 0, 1, -30],
        [127, 128, 0.0002, 0.00107, 0, 99999, 99999, 99999, 0, 0, 1, -30],
        [128, 126, 0.00776, 0.03456, 0.008, 156.4, 156.4, 156.4, 0, 0, 1, -30],
        [130, 132, 0.00021, 0.00113, 0, 99999, 99999, 99999, 0, 0, 1, -30],
        [131, 113, 0.01007, 0.04167, 0.00512, 168.4, 168.4, 168.4, 0, 0, 1, -30],
        [131, 124, 0.00255, 0.01691, 0.00464, 114.5, 114.5, 114.5, 0, 0, 1, -30],
        [132, 110, 0.00181, 0.01653, 0.0297, 442.8, 442.8, 442.8, 0, 0, 1, -30],
        [132, 2325, 0.00446, 0.03681, 0.11569, 530.9, 530.9, 530.9, 0, 0, 1, -30],
        [133, 135, 0.00026, 0.00105, 0, 99999, 99999, 99999, 0, 0, 1, -30],
        [134, 136, 0.00546, 0.02959, 0.0156, 168.4, 168.4, 168.4, 0, 0, 1, -30],
        [134, 139, 0.04495, 0.20301, 0.01902, 160.9, 160.9, 160.9, 0, 0, 1, -30],
        [136, 96, 0.00789, 0.03278, 0.02792, 187, 187, 187, 0, 0, 1, -30],
        [137, 138, 0.00029, 0.0012, 0, 99999, 99999, 99999, 0, 0, 1, -30],
        [138, 136, 0.01303, 0.04355, 0.00744, 139.9, 139.9, 139.9, 0, 0, 1, -30],
        [138, 151, 0.02029, 0.12645, 0.02663, 120.3, 120.3, 120.3, 0, 0, 1, -30],
        [140, 2654, 0.01362, 0.04387, 0.02183, 180.8, 180.8, 180.8, 0, 0, 1, -30],
        [143, 2836, 0.00661, 0.02417, 0.00577, 122.4, 122.4, 122.4, 0, 0, 1, -30],
        [143, 2891, 0.00834, 0.03944, 0.01041, 143.9, 143.9, 143.9, 0, 0, 1, -30],
        [144, 145, 0.00023, 0.00106, 0, 99999, 99999, 99999, 0, 0, 1, -30],
        [144, 146, 0.00023, 0.00113, 0, 99999, 99999, 99999, 0, 0, 1, -30],
        [146, 2345, 0.03921, 0.15613, 0.03093, 213.8, 213.8, 213.8, 0, 0, 1, -30],
        [147, 128, 0.01193, 0.0668, 0.01607, 159.3, 159.3, 159.3, 0, 0, 1, -30],
        [147, 154, 0.01776, 0.08669, 0.03864, 150.8, 150.8, 150.8, 0, 0, 1, -30],
        [148, 149, 0.00029, 0.00108, 0, 99999, 99999, 99999, 0, 0, 1, -30],
        [150, 140, 0.02116, 0.09676, 0.03384, 153.8, 153.8, 153.8, 0, 0, 1, -30],
        [152, 141, 0.04591, 0.15793, 0.01649, 170.3, 170.3, 170.3, 0, 0, 1, -30],
        [153, 86, 0.0552, 0.20025, 0.07716, 197.5, 197.5, 197.5, 0, 0, 1, -30],
        [153, 184, 0.07657, 0.2233, 0.06727, 192.1, 192.1, 192.1, 0, 0, 1, -30],
        [154, 3236, 0.02791, 0.11272, 0.01052, 167.9, 167.9, 167.9, 0, 0, 1, -30],
        [155, 156, 0.00022, 0.00109, 0, 99999, 99999, 99999, 0, 0, 1, -30],
        [156, 3148, 0.0278, 0.10938, 0.02745, 123, 123, 123, 0, 0, 1, -30],
        [157, 150, 0.02294, 0.12637, 0.02331, 146.7, 146.7, 146.7, 0, 0, 1, -30],
        [159, 2629, 0.02269, 0.12466, 0.05936, 137.5, 137.5, 137.5, 0, 0, 1, -30],
        [159, 2810, 0.01302, 0.0714, 0.01233, 138.8, 138.8, 138.8, 0, 0, 1, -30],
        [160, 162, 0.00021, 0.00119, 0, 99999, 99999, 99999, 0, 0, 1, -30],
        [160, 163, 0.00029, 0.00101, 0, 99999, 99999, 99999, 0, 0, 1, -30],
        [163, 2632, 0.00311, 0.03154, 0.09414, 540.7, 540.7, 540.7, 0, 0, 1, -30],
        [164, 159, 0.01046, 0.05537, 0.01178, 135.4, 135.4, 135.4, 0, 0, 1, -30],
        [164, 161, 0.00528, 0.02644, 0.00882, 121.3, 121.3, 121.3, 0, 0, 1, -30],
        [165, 166, 0.00029, 0.00112, 0, 99999, 99999, 99999, 0, 0, 1, -30],
        [165, 167, 0.00023, 0.00118, 0, 99999, 99999, 99999, 0, 0, 1, -30],
        [166, 170, 0.00985, 0.03205, 0.00466, 151.8, 151.8, 151.8, 0, 0, 1, -30],
        [168, 173, 0.00519, 0.02571, 0.00765, 151.5, 151.5, 151.5, 0, 0, 1, -30],
...
    ])
    
    total_load = ppc['bus'][:,2].sum()
    total_gen = ppc['gen'][:,1].sum()
    for i in range(ppc['bus'].shape[0]):
        ppc['bus'][i,2] /= (total_load/total_gen)*1
    for i in range(ppc['gen'].shape[0]):
        ppc['gen'][i,1] /= 1
    return ppc
